FoamFile {
    version 2.0;
    format ascii;
    class dictionary;
    object decomposeParDict;
}
method simple;
numberOfSubdomains 10;

simpleCoeffs
{
    n    (1 2 5);

}
