FoamFile
{
    version     2.0;
    format      ascii;
    class       dictionary;
    object      blockMeshDict;
}

// Exported by SnappyHexMesh GUI add-on for Blender v1.0
// Source file: C:\Users\andrea_windows\Desktop\newgeom\mesh.blend
// Export date: 2022-12-30 17:14:26.547894

convertToMeters 1;

vertices
(
    ( -2.795 -4.03 -6.5 )
    ( 2.795 -4.03 -6.5 )
    ( 2.795 2.795 -6.5 )
    ( -2.795 2.795 -6.5 )
    ( -2.795 -4.03 3.445 )
    ( 2.795 -4.03 3.445 ) 
    ( 2.795 2.795 3.445 ) 
    ( -2.795 2.795 3.445 ) 
);

blocks
(
    hex (0 1 2 3 4 5 6 7) (86 105 153) simpleGrading (1 1 1)
);

edges
(
);

boundary
(
    world
    {
        type patch;
        faces
        (
            (3 7 6 2)
            (0 4 7 3)
            (2 6 5 1)
            (1 5 4 0)
            (0 3 2 1)
            (4 5 6 7)
        );
    }
);
