FoamFile {
    version 2.0;
    format ascii;
    class dictionary;
    object transportProperties;
}

continuousPhaseName air;

rho.air         1;

viscosityModel  constant;
nu              1.568e-05;

