/*--------------------------------*- C++ -*----------------------------------*\
  =========                 |
  \\      /  F ield         | OpenFOAM: The Open Source CFD Toolbox
   \\    /   O peration     | Website:  https://openfoam.org
    \\  /    A nd           | Version:  10
     \\/     M anipulation  |
\*---------------------------------------------------------------------------*/
FoamFile
{
    format      ascii;
    class       volScalarField;
    object      omega;
}
// * * * * * * * * * * * * * * * * * * * * * * * * * * * * * * * * * * * * * //

omegaInlet      0.0816;

dimensions      [0 0 -1 0 0 0 0];

internalField   uniform $omegaInlet;

boundaryField
{
    in_air
    {
        type            fixedValue;
        value           uniform $omegaInlet;
    }

    out_air
    {
        type            inletOutlet;
        inletValue      uniform $omegaInlet;
        value           uniform $omegaInlet;
    }

    walls
    {
        type            omegaWallFunction;
        value           uniform $omegaInlet;
    }

    out_part
    {
        type            omegaWallFunction;
        value           uniform $omegaInlet;
    }

    in_part
    {
        type            omegaWallFunction;
        value           uniform $omegaInlet;
    }

}


// ************************************************************************* //
