FoamFile
{
    version     2.0;
    format      ascii;
    class       dictionary;
    object      blockMeshDict;
}

// Exported by SnappyHexMesh GUI add-on for Blender v1.0
// Source file: G:\Il mio Drive\Rclone\matlab\APC\project\new_mesh_6m.blend
// Export date: 2022-12-15 20:27:57.025065

convertToMeters 1;

vertices
(
    ( -2.795 -2.795 -6.11 )
    ( 2.795 -2.795 -6.11 )
    ( 2.795 2.795 -6.11 )
    ( -2.795 2.795 -6.11 )
    ( -2.795 -2.795 3.055 )
    ( 2.795 -2.795 3.055 ) 
    ( 2.795 2.795 3.055 ) 
    ( -2.795 2.795 3.055 ) 
);

blocks
(
    hex (0 1 2 3 4 5 6 7) (100 100 160) simpleGrading (1 1 0.33)
);

edges
(
);

boundary
(
    world
    {
        type patch;
        faces
        (
            (3 7 6 2)
            (0 4 7 3)
            (2 6 5 1)
            (1 5 4 0)
            (0 3 2 1)
            (4 5 6 7)
        );
    }
);
