FoamFile
{
    version     2.0;
    format      ascii;
    class       dictionary;
    object      decomposeParDict;
}

// Exported by SnappyHexMesh GUI add-on for Blender v1.0
// Source file: G:\Il mio Drive\Rclone\matlab\APC\project\new_mesh_6m.blend
// Export date: 2022-12-15 20:27:57.044817

numberOfSubdomains 8;

method          scotch;
// method          simple;

simpleCoeffs
{
    n               (1 1 8);
    delta           0.001;
}

hierarchicalCoeffs
{
    n               (1 1 8);
    delta           0.001;
    order           xyz;
}

manualCoeffs
{
    dataFile        "cellDecomposition";
}
