FoamFile
{
    version         2;
    format          ascii;
    class           dictionary;
    object          snappyHexMeshDict;
}

// Exported by SnappyHexMesh GUI add-on for Blender v1.0
// Source file: G:\Il mio Drive\Rclone\matlab\APC\project\new_mesh_6m.blend
// Export date: 2022-12-15 20:27:57.025065

castellatedMesh true;
snap            true;
addLayers       false;

geometry
{
    in_air
    {
        type triSurfaceMesh;
        file "in_air.stl";
        // Min Bounds = [-1.50651e+00 -1.50651e+00  3.00000e+00]
        // Max Bounds = [ 1.50651e+00  1.50651e+00  3.00000e+00]
        // Area = 6.17633e+00
    }
    in_part
    {
        type triSurfaceMesh;
        file "in_part.stl";
        // Min Bounds = [-5.39355e-01 -5.39355e-01  3.00000e+00]
        // Max Bounds = [ 5.39355e-01  5.39355e-01  3.00000e+00]
        // Area = 9.08041e-01
    }
    out_air
    {
        type triSurfaceMesh;
        file "out_air.stl";
        // Min Bounds = [-6.04166e-01 -6.00000e-01 -3.16898e+00]
        // Max Bounds = [ 5.95834e-01  6.00000e-01 -3.16898e+00]
        // Area = 1.12372e+00
    }
    out_part
    {
        type triSurfaceMesh;
        file "out_part.stl";
        // Min Bounds = [-4.56682e-01 -4.56682e-01 -6.05386e+00]
        // Max Bounds = [ 4.56683e-01  4.56683e-01 -6.05386e+00]
        // Area = 6.51005e-01
    }
    walls
    {
        type triSurfaceMesh;
        file "walls.stl";
        // Min Bounds = [-2.75000e+00 -2.75000e+00 -6.05386e+00]
        // Max Bounds = [ 2.75000e+00  2.75000e+00  3.00000e+00]
        // Area = 1.69428e+02
    }
}

castellatedMeshControls
{
    maxLocalCells   10000000;
    maxGlobalCells  10000000;
    minRefinementCells 10;
    maxLoadUnbalance 0.1;
    nCellsBetweenLevels 3;
    locationInMesh (0 0 0);
    allowFreeStandingZoneFaces true;
    resolveFeatureAngle 90;
    features
    (
        {
            file "in_air.eMesh";
            level 0;
        }
        {
            file "in_part.eMesh";
            level 1;
        }
        {
            file "out_air.eMesh";
            level 1;
        }
        {
            file "out_part.eMesh";
            level 1;
        }
        {
            file "walls.eMesh";
            level 1;
        }

    );
    refinementSurfaces
    {
        in_air
        {
            level (0 0);
            patchInfo { type patch; }
        }
        in_part
        {
            level (0 0);
            patchInfo { type wall; }
        }
        out_air
        {
            level (0 0);
            patchInfo { type patch; }
        }
        out_part
        {
            level (0 0);
            patchInfo { type wall; }
        }
        walls
        {
            level (1 1);
            patchInfo { type wall; }
        }

    }
    refinementRegions
    {

    }
}

snapControls
{
    nSmoothPatch    13;
    tolerance       3;
    nSolveIter      400;
    nRelaxIter      15;
    nFeatureSnapIter 35;
    implicitFeatureSnap false;
    explicitFeatureSnap true;
    multiRegionFeatureSnap true;
}

addLayersControls
{
    relativeSizes   true;
    expansionRatio  1;
    finalLayerThickness 0.3;
    minThickness    0.1;
    nGrow           0;
    featureAngle    60;
    slipFeatureAngle 30;
    nRelaxIter      3;
    nSmoothSurfaceNormals 5;
    nSmoothNormals  5;
    nSmoothThickness 13;
    maxFaceThicknessRatio 0.5;
    maxThicknessToMedialRatio 0.3;
    minMedianAxisAngle 90;
    nBufferCellsNoExtrude 0;
    nLayerIter      80;
    layers
    {
        in_air
        {
             nSurfaceLayers 0;
        }
        in_part
        {
             nSurfaceLayers 0;
        }
        out_air
        {
             nSurfaceLayers 0;
        }
        out_part
        {
             nSurfaceLayers 0;
        }
        walls
        {
             nSurfaceLayers 0;
        }

    }
}

meshQualityControls
{
    maxNonOrtho     65;
    maxBoundarySkewness 6;
    maxInternalSkewness 3;
    maxConcave      75;
    minVol          1e-11;
    minTetQuality   1e-11;
    minArea         -1;
    minTwist        0.02;
    minDeterminant  0.001;
    minFaceWeight   0.05;
    minVolRatio     0.01;
    minTriangleTwist -1;
    nSmoothScale    8;
    errorReduction  0.75;
}

writeFlags      ( scalarLevels layerSets layerFields );

mergeTolerance  1e-06;
