FoamFile
{
    version         2;
    format          ascii;
    class           dictionary;
    object          surfaceFeaturesDict;
}

// Exported by SnappyHexMesh GUI add-on for Blender v1.0
// Source file: G:\Il mio Drive\Rclone\matlab\APC\project\new_mesh_6m.blend
// Export date: 2022-12-15 20:27:57.025065



surfaces
(
    "in_air.stl"
    "in_part.stl"
    "out_air.stl"
    "out_part.stl"
    "walls.stl"
);

includedAngle   150;


