FoamFile {
    version 2.0;
    format ascii;
    class dictionary;
    object fvSchemes;
}
ddtSchemes {
    default Euler;
}
gradSchemes {
    default cellLimited leastSquares 1;
    grad(p) cellLimited leastSquares 1;
    grad(U) cellLimited leastSquares 1;
    grad(nuTilda) cellLimited leastSquares 1;
    grad(omega) cellLimited leastSquares 1;
    grad(phi) cellLimited leastSquares 1;
}
divSchemes {
    default Gauss linear;
    div(phi,U) Gauss linearUpwindV grad(U);
    div((nuEff*dev2(T(grad(U))))) Gauss linear;
    div(phi,nuTilda) Gauss linear;
    div(phi,tracer)	Gauss limitedLinear 01;
    div(phi,k) Gauss limitedLinear 01;
    div(phi,omega) Gauss limitedLinear 01;
    div(div(phi,U)) Gauss limitedLinear 01;
}
laplacianSchemes {
    default Gauss linear limited corrected 0.5;
    laplacian(nuEff,U) Gauss linear limited corrected 0.5;
    laplacian(DnuTildaEff,nuTilda) Gauss linear limited corrected 0.5;
    laplacian(rAUf,p) Gauss linear limited corrected 0.5;
    laplacian(1,p) Gauss linear corrected;
    laplacian(1,Phi) Gauss linear corrected;
    laplacian(p) Gauss linear corrected;
}
interpolationSchemes {
    default linear;
    interpolate(U) linear;
}
snGradSchemes {
    default limited 0.5;
}
wallDist {
    method meshWave;
}
